&nhyd_model
    config_time_integration_order = 2
    config_dt = 720.0
    config_start_time               = '2024-08-15_18:00:00'
    config_run_duration = '0_06:00:00'
    config_split_dynamics_transport = true
    config_number_of_sub_steps = 4
    config_dynamics_split_steps = 3
    config_horiz_mixing = '2d_smagorinsky'
    config_visc4_2dsmag = 0.05
    config_scalar_advection = true
    config_monotonic = true
    config_coef_3rd_order = 0.25
    config_epssm = 0.1
    config_smdiv = 0.1
/
&damping
    config_mpas_cam_coef             = 2.0
    config_rayleigh_damp_u           = true
    config_zd                        = 16000.0
    config_xnutr                     = 0.2
    config_number_cam_damping_levels = 8
/
&limited_area
    config_apply_lbcs = true
/
&io
    config_pio_num_iotasks           = 0
    config_pio_stride                = 1
/
&decomposition
    config_block_decomp_file_prefix  = 'graph.info.part.'
/
&restart
    config_do_restart = false
/
&printout
    config_print_global_minmax_vel = true
    config_print_detailed_minmax_vel = false
/
&IAU
    config_IAU_option = 'off'
    config_IAU_window_length_s = 21600.
/
&physics
    config_sst_update = false
    config_gvf_update = false
    config_sstdiurn_update = false
    config_frac_seaice = true
    config_deepsoiltemp_update = false
    config_radtlw_interval = '00:15:00'
    config_radtsw_interval = '00:15:00'
    config_bucket_update = 'none'
    config_physics_suite = 'hrrrv5'
    num_soil_layers      = 9
/
&physics_mp_tempo
    config_tempo_aerosolaware = .true.
    config_tempo_hailaware = .true.
/
&soundings
    config_sounding_interval = 'none'
/
